<configuration>
    <input>
            <net-file value="sumo-map.net.xml"/>
                    <route-files value="sumo-map.rou.xml"/>
                        </input>
                            <time>
                                    <begin value="0"/>
                                            <end value="1000000"/>
                                                </time>
                                                </configuration>
