<?xml version="1.0" encoding="UTF-8"?>

<!-- generated on Monday 16 April 2018 10:01:18 PM IST by Netedit Version 0.32.0
<?xml version="1.0" encoding="UTF-8"?>

<configuration xmlns:xsi="http://www.w3.org/2001/XMLSchema-instance" xsi:noNamespaceSchemaLocation="http://sumo.dlr.de/xsd/netconvertConfiguration.xsd">

    <input>
        <sumo-net-file value="sumo-map.net.xml"/>
    </input>

    <output>
        <output-file value="sumo-map.net.xml"/>
    </output>

    <processing>
        <no-turnarounds value="true"/>
        <offset.disable-normalization value="true"/>
        <lefthand value="false"/>
        <junctions.corner-detail value="0"/>
        <rectangular-lane-cut value="false"/>
        <walkingareas value="false"/>
    </processing>

    <visualisation>
        <registry-viewport value="true"/>
    </visualisation>

</configuration>
-->

<net version="0.27" xmlns:xsi="http://www.w3.org/2001/XMLSchema-instance" xsi:noNamespaceSchemaLocation="http://sumo.dlr.de/xsd/net_file.xsd">

    <location netOffset="250.00,250.00" convBoundary="0.00,0.00,750.00,750.00" origBoundary="-250.00,-250.00,500.00,500.00" projParameter="!"/>

    <edge id=":a_0" function="internal">
        <lane id=":a_0_0" index="0" speed="13.90" length="5.00" shape="238.45,264.65 238.26,263.29 237.67,262.32 236.71,261.74 235.35,261.55"/>
    </edge>
    <edge id=":a_1" function="internal">
        <lane id=":a_1_0" index="0" speed="13.90" length="29.30" shape="241.75,264.65 241.75,235.35"/>
        <lane id=":a_1_1" index="1" speed="13.90" length="29.30" shape="245.05,264.65 245.05,235.35"/>
    </edge>
    <edge id=":a_3" function="internal">
        <lane id=":a_3_0" index="0" speed="13.90" length="14.22" shape="248.35,264.65 249.37,257.52 252.43,252.43 253.35,251.87"/>
    </edge>
    <edge id=":a_16" function="internal">
        <lane id=":a_16_0" index="0" speed="13.90" length="12.07" shape="253.35,251.87 257.52,249.37 264.65,248.35"/>
    </edge>
    <edge id=":a_4" function="internal">
        <lane id=":a_4_0" index="0" speed="13.90" length="5.00" shape="264.65,261.55 263.29,261.74 262.32,262.33 261.74,263.29 261.55,264.65"/>
    </edge>
    <edge id=":a_5" function="internal">
        <lane id=":a_5_0" index="0" speed="13.90" length="29.30" shape="264.65,258.25 235.35,258.25"/>
        <lane id=":a_5_1" index="1" speed="13.90" length="29.30" shape="264.65,254.95 235.35,254.95"/>
    </edge>
    <edge id=":a_7" function="internal">
        <lane id=":a_7_0" index="0" speed="13.90" length="14.22" shape="264.65,251.65 257.52,250.63 252.43,247.58 251.87,246.65"/>
    </edge>
    <edge id=":a_17" function="internal">
        <lane id=":a_17_0" index="0" speed="13.90" length="12.07" shape="251.87,246.65 249.37,242.48 248.35,235.35"/>
    </edge>
    <edge id=":a_8" function="internal">
        <lane id=":a_8_0" index="0" speed="13.90" length="5.00" shape="261.55,235.35 261.74,236.71 262.33,237.68 263.29,238.26 264.65,238.45"/>
    </edge>
    <edge id=":a_9" function="internal">
        <lane id=":a_9_0" index="0" speed="13.90" length="29.30" shape="258.25,235.35 258.25,264.65"/>
        <lane id=":a_9_1" index="1" speed="13.90" length="29.30" shape="254.95,235.35 254.95,264.65"/>
    </edge>
    <edge id=":a_11" function="internal">
        <lane id=":a_11_0" index="0" speed="13.90" length="14.22" shape="251.65,235.35 250.63,242.48 247.58,247.57 246.65,248.13"/>
    </edge>
    <edge id=":a_18" function="internal">
        <lane id=":a_18_0" index="0" speed="13.90" length="12.07" shape="246.65,248.13 242.48,250.63 235.35,251.65"/>
    </edge>
    <edge id=":a_12" function="internal">
        <lane id=":a_12_0" index="0" speed="13.90" length="5.00" shape="235.35,238.45 236.71,238.26 237.68,237.67 238.26,236.71 238.45,235.35"/>
    </edge>
    <edge id=":a_13" function="internal">
        <lane id=":a_13_0" index="0" speed="13.90" length="29.30" shape="235.35,241.75 264.65,241.75"/>
        <lane id=":a_13_1" index="1" speed="13.90" length="29.30" shape="235.35,245.05 264.65,245.05"/>
    </edge>
    <edge id=":a_15" function="internal">
        <lane id=":a_15_0" index="0" speed="13.90" length="14.22" shape="235.35,248.35 242.48,249.37 247.57,252.43 248.13,253.35"/>
    </edge>
    <edge id=":a_19" function="internal">
        <lane id=":a_19_0" index="0" speed="13.90" length="12.07" shape="248.13,253.35 250.63,257.52 251.65,264.65"/>
    </edge>
    <edge id=":b_0" function="internal">
        <lane id=":b_0_0" index="0" speed="13.90" length="5.00" shape="488.45,264.65 488.26,263.29 487.67,262.32 486.71,261.74 485.35,261.55"/>
    </edge>
    <edge id=":b_1" function="internal">
        <lane id=":b_1_0" index="0" speed="13.90" length="29.30" shape="491.75,264.65 491.75,235.35"/>
        <lane id=":b_1_1" index="1" speed="13.90" length="29.30" shape="495.05,264.65 495.05,235.35"/>
    </edge>
    <edge id=":b_3" function="internal">
        <lane id=":b_3_0" index="0" speed="13.90" length="14.22" shape="498.35,264.65 499.37,257.52 502.43,252.43 503.35,251.87"/>
    </edge>
    <edge id=":b_16" function="internal">
        <lane id=":b_16_0" index="0" speed="13.90" length="12.07" shape="503.35,251.87 507.52,249.37 514.65,248.35"/>
    </edge>
    <edge id=":b_4" function="internal">
        <lane id=":b_4_0" index="0" speed="13.90" length="5.00" shape="514.65,261.55 513.29,261.74 512.33,262.33 511.74,263.29 511.55,264.65"/>
    </edge>
    <edge id=":b_5" function="internal">
        <lane id=":b_5_0" index="0" speed="13.90" length="29.30" shape="514.65,258.25 485.35,258.25"/>
        <lane id=":b_5_1" index="1" speed="13.90" length="29.30" shape="514.65,254.95 485.35,254.95"/>
    </edge>
    <edge id=":b_7" function="internal">
        <lane id=":b_7_0" index="0" speed="13.90" length="14.22" shape="514.65,251.65 507.52,250.63 502.42,247.58 501.87,246.65"/>
    </edge>
    <edge id=":b_17" function="internal">
        <lane id=":b_17_0" index="0" speed="13.90" length="12.07" shape="501.87,246.65 499.37,242.48 498.35,235.35"/>
    </edge>
    <edge id=":b_8" function="internal">
        <lane id=":b_8_0" index="0" speed="13.90" length="5.00" shape="511.55,235.35 511.74,236.71 512.33,237.68 513.29,238.26 514.65,238.45"/>
    </edge>
    <edge id=":b_9" function="internal">
        <lane id=":b_9_0" index="0" speed="13.90" length="29.30" shape="508.25,235.35 508.25,264.65"/>
        <lane id=":b_9_1" index="1" speed="13.90" length="29.30" shape="504.95,235.35 504.95,264.65"/>
    </edge>
    <edge id=":b_11" function="internal">
        <lane id=":b_11_0" index="0" speed="13.90" length="14.22" shape="501.65,235.35 500.63,242.48 497.57,247.57 496.65,248.13"/>
    </edge>
    <edge id=":b_18" function="internal">
        <lane id=":b_18_0" index="0" speed="13.90" length="12.07" shape="496.65,248.13 492.48,250.63 485.35,251.65"/>
    </edge>
    <edge id=":b_12" function="internal">
        <lane id=":b_12_0" index="0" speed="13.90" length="5.00" shape="485.35,238.45 486.71,238.26 487.68,237.67 488.26,236.71 488.45,235.35"/>
    </edge>
    <edge id=":b_13" function="internal">
        <lane id=":b_13_0" index="0" speed="13.90" length="29.30" shape="485.35,241.75 514.65,241.75"/>
        <lane id=":b_13_1" index="1" speed="13.90" length="29.30" shape="485.35,245.05 514.65,245.05"/>
    </edge>
    <edge id=":b_15" function="internal">
        <lane id=":b_15_0" index="0" speed="13.90" length="14.22" shape="485.35,248.35 492.48,249.37 497.57,252.43 498.13,253.35"/>
    </edge>
    <edge id=":b_19" function="internal">
        <lane id=":b_19_0" index="0" speed="13.90" length="12.07" shape="498.13,253.35 500.63,257.52 501.65,264.65"/>
    </edge>
    <edge id=":c_0" function="internal">
        <lane id=":c_0_0" index="0" speed="13.90" length="5.00" shape="488.45,514.65 488.26,513.29 487.67,512.33 486.71,511.74 485.35,511.55"/>
    </edge>
    <edge id=":c_1" function="internal">
        <lane id=":c_1_0" index="0" speed="13.90" length="29.30" shape="491.75,514.65 491.75,485.35"/>
        <lane id=":c_1_1" index="1" speed="13.90" length="29.30" shape="495.05,514.65 495.05,485.35"/>
    </edge>
    <edge id=":c_3" function="internal">
        <lane id=":c_3_0" index="0" speed="13.90" length="14.22" shape="498.35,514.65 499.37,507.52 502.43,502.42 503.35,501.87"/>
    </edge>
    <edge id=":c_16" function="internal">
        <lane id=":c_16_0" index="0" speed="13.90" length="12.07" shape="503.35,501.87 507.52,499.37 514.65,498.35"/>
    </edge>
    <edge id=":c_4" function="internal">
        <lane id=":c_4_0" index="0" speed="13.90" length="5.00" shape="514.65,511.55 513.29,511.74 512.33,512.33 511.74,513.29 511.55,514.65"/>
    </edge>
    <edge id=":c_5" function="internal">
        <lane id=":c_5_0" index="0" speed="13.90" length="29.30" shape="514.65,508.25 485.35,508.25"/>
        <lane id=":c_5_1" index="1" speed="13.90" length="29.30" shape="514.65,504.95 485.35,504.95"/>
    </edge>
    <edge id=":c_7" function="internal">
        <lane id=":c_7_0" index="0" speed="13.90" length="14.22" shape="514.65,501.65 507.52,500.63 502.42,497.57 501.87,496.65"/>
    </edge>
    <edge id=":c_17" function="internal">
        <lane id=":c_17_0" index="0" speed="13.90" length="12.07" shape="501.87,496.65 499.37,492.48 498.35,485.35"/>
    </edge>
    <edge id=":c_8" function="internal">
        <lane id=":c_8_0" index="0" speed="13.90" length="5.00" shape="511.55,485.35 511.74,486.71 512.33,487.68 513.29,488.26 514.65,488.45"/>
    </edge>
    <edge id=":c_9" function="internal">
        <lane id=":c_9_0" index="0" speed="13.90" length="29.30" shape="508.25,485.35 508.25,514.65"/>
        <lane id=":c_9_1" index="1" speed="13.90" length="29.30" shape="504.95,485.35 504.95,514.65"/>
    </edge>
    <edge id=":c_11" function="internal">
        <lane id=":c_11_0" index="0" speed="13.90" length="14.22" shape="501.65,485.35 500.63,492.48 497.57,497.57 496.65,498.13"/>
    </edge>
    <edge id=":c_18" function="internal">
        <lane id=":c_18_0" index="0" speed="13.90" length="12.07" shape="496.65,498.13 492.48,500.63 485.35,501.65"/>
    </edge>
    <edge id=":c_12" function="internal">
        <lane id=":c_12_0" index="0" speed="13.90" length="5.00" shape="485.35,488.45 486.71,488.26 487.68,487.67 488.26,486.71 488.45,485.35"/>
    </edge>
    <edge id=":c_13" function="internal">
        <lane id=":c_13_0" index="0" speed="13.90" length="29.30" shape="485.35,491.75 514.65,491.75"/>
        <lane id=":c_13_1" index="1" speed="13.90" length="29.30" shape="485.35,495.05 514.65,495.05"/>
    </edge>
    <edge id=":c_15" function="internal">
        <lane id=":c_15_0" index="0" speed="13.90" length="14.22" shape="485.35,498.35 492.48,499.37 497.57,502.43 498.13,503.35"/>
    </edge>
    <edge id=":c_19" function="internal">
        <lane id=":c_19_0" index="0" speed="13.90" length="12.07" shape="498.13,503.35 500.63,507.52 501.65,514.65"/>
    </edge>
    <edge id=":d_0" function="internal">
        <lane id=":d_0_0" index="0" speed="13.90" length="5.00" shape="238.45,514.65 238.26,513.29 237.67,512.33 236.71,511.74 235.35,511.55"/>
    </edge>
    <edge id=":d_1" function="internal">
        <lane id=":d_1_0" index="0" speed="13.90" length="29.30" shape="241.75,514.65 241.75,485.35"/>
        <lane id=":d_1_1" index="1" speed="13.90" length="29.30" shape="245.05,514.65 245.05,485.35"/>
    </edge>
    <edge id=":d_3" function="internal">
        <lane id=":d_3_0" index="0" speed="13.90" length="14.22" shape="248.35,514.65 249.37,507.52 252.43,502.42 253.35,501.87"/>
    </edge>
    <edge id=":d_16" function="internal">
        <lane id=":d_16_0" index="0" speed="13.90" length="12.07" shape="253.35,501.87 257.52,499.37 264.65,498.35"/>
    </edge>
    <edge id=":d_4" function="internal">
        <lane id=":d_4_0" index="0" speed="13.90" length="5.00" shape="264.65,511.55 263.29,511.74 262.32,512.33 261.74,513.29 261.55,514.65"/>
    </edge>
    <edge id=":d_5" function="internal">
        <lane id=":d_5_0" index="0" speed="13.90" length="29.30" shape="264.65,508.25 235.35,508.25"/>
        <lane id=":d_5_1" index="1" speed="13.90" length="29.30" shape="264.65,504.95 235.35,504.95"/>
    </edge>
    <edge id=":d_7" function="internal">
        <lane id=":d_7_0" index="0" speed="13.90" length="14.22" shape="264.65,501.65 257.52,500.63 252.43,497.57 251.87,496.65"/>
    </edge>
    <edge id=":d_17" function="internal">
        <lane id=":d_17_0" index="0" speed="13.90" length="12.07" shape="251.87,496.65 249.37,492.48 248.35,485.35"/>
    </edge>
    <edge id=":d_8" function="internal">
        <lane id=":d_8_0" index="0" speed="13.90" length="5.00" shape="261.55,485.35 261.74,486.71 262.33,487.68 263.29,488.26 264.65,488.45"/>
    </edge>
    <edge id=":d_9" function="internal">
        <lane id=":d_9_0" index="0" speed="13.90" length="29.30" shape="258.25,485.35 258.25,514.65"/>
        <lane id=":d_9_1" index="1" speed="13.90" length="29.30" shape="254.95,485.35 254.95,514.65"/>
    </edge>
    <edge id=":d_11" function="internal">
        <lane id=":d_11_0" index="0" speed="13.90" length="14.22" shape="251.65,485.35 250.63,492.48 247.58,497.57 246.65,498.13"/>
    </edge>
    <edge id=":d_18" function="internal">
        <lane id=":d_18_0" index="0" speed="13.90" length="12.07" shape="246.65,498.13 242.48,500.63 235.35,501.65"/>
    </edge>
    <edge id=":d_12" function="internal">
        <lane id=":d_12_0" index="0" speed="13.90" length="5.00" shape="235.35,488.45 236.71,488.26 237.68,487.67 238.26,486.71 238.45,485.35"/>
    </edge>
    <edge id=":d_13" function="internal">
        <lane id=":d_13_0" index="0" speed="13.90" length="29.30" shape="235.35,491.75 264.65,491.75"/>
        <lane id=":d_13_1" index="1" speed="13.90" length="29.30" shape="235.35,495.05 264.65,495.05"/>
    </edge>
    <edge id=":d_15" function="internal">
        <lane id=":d_15_0" index="0" speed="13.90" length="14.22" shape="235.35,498.35 242.48,499.37 247.57,502.43 248.13,503.35"/>
    </edge>
    <edge id=":d_19" function="internal">
        <lane id=":d_19_0" index="0" speed="13.90" length="12.07" shape="248.13,503.35 250.63,507.52 251.65,514.65"/>
    </edge>
    <edge id=":e_0" function="internal">
        <lane id=":e_0_0" index="0" speed="13.90" length="4.82" shape="251.65,750.00 250.82,751.24 250.00,751.65 249.18,751.24 248.35,750.00"/>
    </edge>
    <edge id=":f_0" function="internal">
        <lane id=":f_0_0" index="0" speed="13.90" length="4.82" shape="501.65,750.00 500.82,751.24 500.00,751.65 499.18,751.24 498.35,750.00"/>
    </edge>
    <edge id=":g_0" function="internal">
        <lane id=":g_0_0" index="0" speed="13.90" length="4.82" shape="750.00,498.35 751.24,499.18 751.65,500.00 751.24,500.82 750.00,501.65"/>
    </edge>
    <edge id=":h_0" function="internal">
        <lane id=":h_0_0" index="0" speed="13.90" length="4.82" shape="750.00,248.35 751.24,249.18 751.65,250.00 751.24,250.82 750.00,251.65"/>
    </edge>
    <edge id=":i_0" function="internal">
        <lane id=":i_0_0" index="0" speed="13.90" length="4.82" shape="498.35,0.00 499.18,-1.24 500.00,-1.65 500.82,-1.24 501.65,0.00"/>
    </edge>
    <edge id=":j_0" function="internal">
        <lane id=":j_0_0" index="0" speed="13.90" length="4.82" shape="248.35,0.00 249.18,-1.24 250.00,-1.65 250.82,-1.24 251.65,0.00"/>
    </edge>
    <edge id=":k_0" function="internal">
        <lane id=":k_0_0" index="0" speed="13.90" length="4.82" shape="0.00,251.65 -1.24,250.82 -1.65,250.00 -1.24,249.18 0.00,248.35"/>
    </edge>
    <edge id=":l_0" function="internal">
        <lane id=":l_0_0" index="0" speed="13.90" length="4.82" shape="0.00,501.65 -1.24,500.82 -1.65,500.00 -1.24,499.18 0.00,498.35"/>
    </edge>

    <edge id="atobc" from="a" to="b" priority="-1">
        <lane id="atobc_0" index="0" speed="13.90" length="220.70" shape="264.65,238.45 485.35,238.45"/>
        <lane id="atobc_1" index="1" speed="13.90" length="220.70" shape="264.65,241.75 485.35,241.75"/>
        <lane id="atobc_2" index="2" speed="13.90" length="220.70" shape="264.65,245.05 485.35,245.05"/>
        <lane id="atobc_3" index="3" speed="13.90" length="220.70" shape="264.65,248.35 485.35,248.35"/>
    </edge>
    <edge id="atodc" from="a" to="d" priority="-1">
        <lane id="atodc_0" index="0" speed="13.90" length="220.70" shape="261.55,264.65 261.55,485.35"/>
        <lane id="atodc_1" index="1" speed="13.90" length="220.70" shape="258.25,264.65 258.25,485.35"/>
        <lane id="atodc_2" index="2" speed="13.90" length="220.70" shape="254.95,264.65 254.95,485.35"/>
        <lane id="atodc_3" index="3" speed="13.90" length="220.70" shape="251.65,264.65 251.65,485.35"/>
    </edge>
    <edge id="atojr" from="a" to="j" priority="-1">
        <lane id="atojr_0" index="0" speed="13.90" length="235.35" shape="238.45,235.35 238.45,0.00"/>
        <lane id="atojr_1" index="1" speed="13.90" length="235.35" shape="241.75,235.35 241.75,0.00"/>
        <lane id="atojr_2" index="2" speed="13.90" length="235.35" shape="245.05,235.35 245.05,0.00"/>
        <lane id="atojr_3" index="3" speed="13.90" length="235.35" shape="248.35,235.35 248.35,0.00"/>
    </edge>
    <edge id="atokr" from="a" to="k" priority="-1">
        <lane id="atokr_0" index="0" speed="13.90" length="235.35" shape="235.35,261.55 0.00,261.55"/>
        <lane id="atokr_1" index="1" speed="13.90" length="235.35" shape="235.35,258.25 0.00,258.25"/>
        <lane id="atokr_2" index="2" speed="13.90" length="235.35" shape="235.35,254.95 0.00,254.95"/>
        <lane id="atokr_3" index="3" speed="13.90" length="235.35" shape="235.35,251.65 0.00,251.65"/>
    </edge>
    <edge id="btoac" from="b" to="a" priority="-1">
        <lane id="btoac_0" index="0" speed="13.90" length="220.70" shape="485.35,261.55 264.65,261.55"/>
        <lane id="btoac_1" index="1" speed="13.90" length="220.70" shape="485.35,258.25 264.65,258.25"/>
        <lane id="btoac_2" index="2" speed="13.90" length="220.70" shape="485.35,254.95 264.65,254.95"/>
        <lane id="btoac_3" index="3" speed="13.90" length="220.70" shape="485.35,251.65 264.65,251.65"/>
    </edge>
    <edge id="btocc" from="b" to="c" priority="-1">
        <lane id="btocc_0" index="0" speed="13.90" length="220.70" shape="511.55,264.65 511.55,485.35"/>
        <lane id="btocc_1" index="1" speed="13.90" length="220.70" shape="508.25,264.65 508.25,485.35"/>
        <lane id="btocc_2" index="2" speed="13.90" length="220.70" shape="504.95,264.65 504.95,485.35"/>
        <lane id="btocc_3" index="3" speed="13.90" length="220.70" shape="501.65,264.65 501.65,485.35"/>
    </edge>
    <edge id="btohr" from="b" to="h" priority="-1">
        <lane id="btohr_0" index="0" speed="13.90" length="235.35" shape="514.65,238.45 750.00,238.45"/>
        <lane id="btohr_1" index="1" speed="13.90" length="235.35" shape="514.65,241.75 750.00,241.75"/>
        <lane id="btohr_2" index="2" speed="13.90" length="235.35" shape="514.65,245.05 750.00,245.05"/>
        <lane id="btohr_3" index="3" speed="13.90" length="235.35" shape="514.65,248.35 750.00,248.35"/>
    </edge>
    <edge id="btoi" from="b" to="i" priority="-1">
        <lane id="btoi_0" index="0" speed="13.90" length="235.35" shape="488.45,235.35 488.45,0.00"/>
        <lane id="btoi_1" index="1" speed="13.90" length="235.35" shape="491.75,235.35 491.75,0.00"/>
        <lane id="btoi_2" index="2" speed="13.90" length="235.35" shape="495.05,235.35 495.05,0.00"/>
        <lane id="btoi_3" index="3" speed="13.90" length="235.35" shape="498.35,235.35 498.35,0.00"/>
    </edge>
    <edge id="ctobc" from="c" to="b" priority="-1">
        <lane id="ctobc_0" index="0" speed="13.90" length="220.70" shape="488.45,485.35 488.45,264.65"/>
        <lane id="ctobc_1" index="1" speed="13.90" length="220.70" shape="491.75,485.35 491.75,264.65"/>
        <lane id="ctobc_2" index="2" speed="13.90" length="220.70" shape="495.05,485.35 495.05,264.65"/>
        <lane id="ctobc_3" index="3" speed="13.90" length="220.70" shape="498.35,485.35 498.35,264.65"/>
    </edge>
    <edge id="ctodc" from="c" to="d" priority="-1">
        <lane id="ctodc_0" index="0" speed="13.90" length="220.70" shape="485.35,511.55 264.65,511.55"/>
        <lane id="ctodc_1" index="1" speed="13.90" length="220.70" shape="485.35,508.25 264.65,508.25"/>
        <lane id="ctodc_2" index="2" speed="13.90" length="220.70" shape="485.35,504.95 264.65,504.95"/>
        <lane id="ctodc_3" index="3" speed="13.90" length="220.70" shape="485.35,501.65 264.65,501.65"/>
    </edge>
    <edge id="ctofr" from="c" to="f" priority="-1">
        <lane id="ctofr_0" index="0" speed="13.90" length="235.35" shape="511.55,514.65 511.55,750.00"/>
        <lane id="ctofr_1" index="1" speed="13.90" length="235.35" shape="508.25,514.65 508.25,750.00"/>
        <lane id="ctofr_2" index="2" speed="13.90" length="235.35" shape="504.95,514.65 504.95,750.00"/>
        <lane id="ctofr_3" index="3" speed="13.90" length="235.35" shape="501.65,514.65 501.65,750.00"/>
    </edge>
    <edge id="ctogr" from="c" to="g" priority="-1">
        <lane id="ctogr_0" index="0" speed="13.90" length="235.35" shape="514.65,488.45 750.00,488.45"/>
        <lane id="ctogr_1" index="1" speed="13.90" length="235.35" shape="514.65,491.75 750.00,491.75"/>
        <lane id="ctogr_2" index="2" speed="13.90" length="235.35" shape="514.65,495.05 750.00,495.05"/>
        <lane id="ctogr_3" index="3" speed="13.90" length="235.35" shape="514.65,498.35 750.00,498.35"/>
    </edge>
    <edge id="dtoac" from="d" to="a" priority="-1">
        <lane id="dtoac_0" index="0" speed="13.90" length="220.70" shape="238.45,485.35 238.45,264.65"/>
        <lane id="dtoac_1" index="1" speed="13.90" length="220.70" shape="241.75,485.35 241.75,264.65"/>
        <lane id="dtoac_2" index="2" speed="13.90" length="220.70" shape="245.05,485.35 245.05,264.65"/>
        <lane id="dtoac_3" index="3" speed="13.90" length="220.70" shape="248.35,485.35 248.35,264.65"/>
    </edge>
    <edge id="dtocc" from="d" to="c" priority="-1">
        <lane id="dtocc_0" index="0" speed="13.90" length="220.70" shape="264.65,488.45 485.35,488.45"/>
        <lane id="dtocc_1" index="1" speed="13.90" length="220.70" shape="264.65,491.75 485.35,491.75"/>
        <lane id="dtocc_2" index="2" speed="13.90" length="220.70" shape="264.65,495.05 485.35,495.05"/>
        <lane id="dtocc_3" index="3" speed="13.90" length="220.70" shape="264.65,498.35 485.35,498.35"/>
    </edge>
    <edge id="dtoer" from="d" to="e" priority="-1">
        <lane id="dtoer_0" index="0" speed="13.90" length="235.35" shape="261.55,514.65 261.55,750.00"/>
        <lane id="dtoer_1" index="1" speed="13.90" length="235.35" shape="258.25,514.65 258.25,750.00"/>
        <lane id="dtoer_2" index="2" speed="13.90" length="235.35" shape="254.95,514.65 254.95,750.00"/>
        <lane id="dtoer_3" index="3" speed="13.90" length="235.35" shape="251.65,514.65 251.65,750.00"/>
    </edge>
    <edge id="dtolr" from="d" to="l" priority="-1">
        <lane id="dtolr_0" index="0" speed="13.90" length="235.35" shape="235.35,511.55 0.00,511.55"/>
        <lane id="dtolr_1" index="1" speed="13.90" length="235.35" shape="235.35,508.25 0.00,508.25"/>
        <lane id="dtolr_2" index="2" speed="13.90" length="235.35" shape="235.35,504.95 0.00,504.95"/>
        <lane id="dtolr_3" index="3" speed="13.90" length="235.35" shape="235.35,501.65 0.00,501.65"/>
    </edge>
    <edge id="etod" from="e" to="d" priority="-1">
        <lane id="etod_0" index="0" speed="13.90" length="235.35" shape="238.45,750.00 238.45,514.65"/>
        <lane id="etod_1" index="1" speed="13.90" length="235.35" shape="241.75,750.00 241.75,514.65"/>
        <lane id="etod_2" index="2" speed="13.90" length="235.35" shape="245.05,750.00 245.05,514.65"/>
        <lane id="etod_3" index="3" speed="13.90" length="235.35" shape="248.35,750.00 248.35,514.65"/>
    </edge>
    <edge id="ftoc" from="f" to="c" priority="-1">
        <lane id="ftoc_0" index="0" speed="13.90" length="235.35" shape="488.45,750.00 488.45,514.65"/>
        <lane id="ftoc_1" index="1" speed="13.90" length="235.35" shape="491.75,750.00 491.75,514.65"/>
        <lane id="ftoc_2" index="2" speed="13.90" length="235.35" shape="495.05,750.00 495.05,514.65"/>
        <lane id="ftoc_3" index="3" speed="13.90" length="235.35" shape="498.35,750.00 498.35,514.65"/>
    </edge>
    <edge id="gtoc" from="g" to="c" priority="-1">
        <lane id="gtoc_0" index="0" speed="13.90" length="235.35" shape="750.00,511.55 514.65,511.55"/>
        <lane id="gtoc_1" index="1" speed="13.90" length="235.35" shape="750.00,508.25 514.65,508.25"/>
        <lane id="gtoc_2" index="2" speed="13.90" length="235.35" shape="750.00,504.95 514.65,504.95"/>
        <lane id="gtoc_3" index="3" speed="13.90" length="235.35" shape="750.00,501.65 514.65,501.65"/>
    </edge>
    <edge id="htob" from="h" to="b" priority="-1">
        <lane id="htob_0" index="0" speed="13.90" length="235.35" shape="750.00,261.55 514.65,261.55"/>
        <lane id="htob_1" index="1" speed="13.90" length="235.35" shape="750.00,258.25 514.65,258.25"/>
        <lane id="htob_2" index="2" speed="13.90" length="235.35" shape="750.00,254.95 514.65,254.95"/>
        <lane id="htob_3" index="3" speed="13.90" length="235.35" shape="750.00,251.65 514.65,251.65"/>
    </edge>
    <edge id="itobr" from="i" to="b" priority="-1">
        <lane id="itobr_0" index="0" speed="13.90" length="235.35" shape="511.55,0.00 511.55,235.35"/>
        <lane id="itobr_1" index="1" speed="13.90" length="235.35" shape="508.25,0.00 508.25,235.35"/>
        <lane id="itobr_2" index="2" speed="13.90" length="235.35" shape="504.95,0.00 504.95,235.35"/>
        <lane id="itobr_3" index="3" speed="13.90" length="235.35" shape="501.65,0.00 501.65,235.35"/>
    </edge>
    <edge id="jtoa" from="j" to="a" priority="-1">
        <lane id="jtoa_0" index="0" speed="13.90" length="235.35" shape="261.55,0.00 261.55,235.35"/>
        <lane id="jtoa_1" index="1" speed="13.90" length="235.35" shape="258.25,0.00 258.25,235.35"/>
        <lane id="jtoa_2" index="2" speed="13.90" length="235.35" shape="254.95,0.00 254.95,235.35"/>
        <lane id="jtoa_3" index="3" speed="13.90" length="235.35" shape="251.65,0.00 251.65,235.35"/>
    </edge>
    <edge id="ktoa" from="k" to="a" priority="-1">
        <lane id="ktoa_0" index="0" speed="13.90" length="235.35" shape="0.00,238.45 235.35,238.45"/>
        <lane id="ktoa_1" index="1" speed="13.90" length="235.35" shape="0.00,241.75 235.35,241.75"/>
        <lane id="ktoa_2" index="2" speed="13.90" length="235.35" shape="0.00,245.05 235.35,245.05"/>
        <lane id="ktoa_3" index="3" speed="13.90" length="235.35" shape="0.00,248.35 235.35,248.35"/>
    </edge>
    <edge id="ltod" from="l" to="d" priority="-1">
        <lane id="ltod_0" index="0" speed="13.90" length="235.35" shape="0.00,488.45 235.35,488.45"/>
        <lane id="ltod_1" index="1" speed="13.90" length="235.35" shape="0.00,491.75 235.35,491.75"/>
        <lane id="ltod_2" index="2" speed="13.90" length="235.35" shape="0.00,495.05 235.35,495.05"/>
        <lane id="ltod_3" index="3" speed="13.90" length="235.35" shape="0.00,498.35 235.35,498.35"/>
    </edge>

    <tlLogic id="a" type="static" programID="0" offset="0">
        <phase duration="33" state="GGGgrrrrGGGgrrrr"/>
        <phase duration="3" state="yyygrrrryyygrrrr"/>
        <phase duration="6" state="rrrGrrrrrrrGrrrr"/>
        <phase duration="3" state="rrryrrrrrrryrrrr"/>
        <phase duration="33" state="rrrrGGGgrrrrGGGg"/>
        <phase duration="3" state="rrrryyygrrrryyyg"/>
        <phase duration="6" state="rrrrrrrGrrrrrrrG"/>
        <phase duration="3" state="rrrrrrryrrrrrrry"/>
    </tlLogic>
    <tlLogic id="b" type="static" programID="0" offset="0">
        <phase duration="33" state="GGGgrrrrGGGgrrrr"/>
        <phase duration="3" state="yyygrrrryyygrrrr"/>
        <phase duration="6" state="rrrGrrrrrrrGrrrr"/>
        <phase duration="3" state="rrryrrrrrrryrrrr"/>
        <phase duration="33" state="rrrrGGGgrrrrGGGg"/>
        <phase duration="3" state="rrrryyygrrrryyyg"/>
        <phase duration="6" state="rrrrrrrGrrrrrrrG"/>
        <phase duration="3" state="rrrrrrryrrrrrrry"/>
    </tlLogic>
    <tlLogic id="c" type="static" programID="0" offset="0">
        <phase duration="33" state="GGGgrrrrGGGgrrrr"/>
        <phase duration="3" state="yyygrrrryyygrrrr"/>
        <phase duration="6" state="rrrGrrrrrrrGrrrr"/>
        <phase duration="3" state="rrryrrrrrrryrrrr"/>
        <phase duration="33" state="rrrrGGGgrrrrGGGg"/>
        <phase duration="3" state="rrrryyygrrrryyyg"/>
        <phase duration="6" state="rrrrrrrGrrrrrrrG"/>
        <phase duration="3" state="rrrrrrryrrrrrrry"/>
    </tlLogic>
    <tlLogic id="d" type="static" programID="0" offset="0">
        <phase duration="33" state="GGGgrrrrGGGgrrrr"/>
        <phase duration="3" state="yyygrrrryyygrrrr"/>
        <phase duration="6" state="rrrGrrrrrrrGrrrr"/>
        <phase duration="3" state="rrryrrrrrrryrrrr"/>
        <phase duration="33" state="rrrrGGGgrrrrGGGg"/>
        <phase duration="3" state="rrrryyygrrrryyyg"/>
        <phase duration="6" state="rrrrrrrGrrrrrrrG"/>
        <phase duration="3" state="rrrrrrryrrrrrrry"/>
    </tlLogic>

    <junction id="a" type="traffic_light" x="250.00" y="250.00" incLanes="dtoac_0 dtoac_1 dtoac_2 dtoac_3 btoac_0 btoac_1 btoac_2 btoac_3 jtoa_0 jtoa_1 jtoa_2 jtoa_3 ktoa_0 ktoa_1 ktoa_2 ktoa_3" intLanes=":a_0_0 :a_1_0 :a_1_1 :a_16_0 :a_4_0 :a_5_0 :a_5_1 :a_17_0 :a_8_0 :a_9_0 :a_9_1 :a_18_0 :a_12_0 :a_13_0 :a_13_1 :a_19_0" shape="236.85,264.65 263.15,264.65 264.65,263.15 264.65,236.85 263.15,235.35 236.85,235.35 235.35,236.85 235.35,263.15">
        <request index="0" response="0000000000000000" foes="0000000000000000" cont="0"/>
        <request index="1" response="0000000000000000" foes="1110100001100000" cont="0"/>