<?xml version="1.0" encoding="UTF-8"?>

<!-- generated on Mon Apr 16 21:18:05 2018 by SUMO netconvert Version 0.32.0
<?xml version="1.0" encoding="UTF-8"?>

<configuration xmlns:xsi="http://www.w3.org/2001/XMLSchema-instance" xsi:noNamespaceSchemaLocation="http://sumo.dlr.de/xsd/netconvertConfiguration.xsd">

    <input>
        <node-files value="./sumo-map.nod.xml"/>
        <edge-files value="./sumo-map.edg.xml"/>
    </input>

    <output>
        <output-file value="./sumo-map.net.xml"/>
    </output>

</configuration>
-->

<net version="0.27" xmlns:xsi="http://www.w3.org/2001/XMLSchema-instance" xsi:noNamespaceSchemaLocation="http://sumo.dlr.de/xsd/net_file.xsd">

    <location netOffset="250.00,250.00" convBoundary="0.00,0.00,750.00,750.00" origBoundary="-250.00,-250.00,500.00,500.00" projParameter="!"/>

    <edge id=":a_0" function="internal">
        <lane id=":a_0_0" index="0" speed="13.90" length="5.00" shape="238.45,264.65 238.26,263.29 237.67,262.32 236.71,261.74 235.35,261.55"/>
    </edge>
    <edge id=":a_1" function="internal">
        <lane id=":a_1_0" index="0" speed="13.90" length="29.30" shape="238.45,264.65 238.45,235.35"/>
        <lane id=":a_1_1" index="1" speed="13.90" length="29.30" shape="241.75,264.65 241.75,235.35"/>
        <lane id=":a_1_2" index="2" speed="13.90" length="29.30" shape="245.05,264.65 245.05,235.35"/>
        <lane id=":a_1_3" index="3" speed="13.90" length="29.30" shape="248.35,264.65 248.35,235.35"/>
    </edge>
    <edge id=":a_5" function="internal">
        <lane id=":a_5_0" index="0" speed="13.90" length="8.53" shape="248.35,264.65 249.37,257.52 250.05,256.38"/>
    </edge>
    <edge id=":a_6" function="internal">
        <lane id=":a_6_0" index="0" speed="13.90" length="2.41" shape="248.35,264.65 249.18,263.41 250.00,263.00"/>
    </edge>
    <edge id=":a_28" function="internal">
        <lane id=":a_28_0" index="0" speed="13.90" length="17.76" shape="250.05,256.38 252.43,252.43 257.52,249.37 264.65,248.35"/>
    </edge>
    <edge id=":a_29" function="internal">
        <lane id=":a_29_0" index="0" speed="13.90" length="2.41" shape="250.00,263.00 250.82,263.41 251.65,264.65"/>
    </edge>
    <edge id=":a_7" function="internal">
        <lane id=":a_7_0" index="0" speed="13.90" length="5.00" shape="264.65,261.55 263.29,261.74 262.32,262.33 261.74,263.29 261.55,264.65"/>
    </edge>
    <edge id=":a_8" function="internal">
        <lane id=":a_8_0" index="0" speed="13.90" length="29.30" shape="264.65,261.55 235.35,261.55"/>
        <lane id=":a_8_1" index="1" speed="13.90" length="29.30" shape="264.65,258.25 235.35,258.25"/>
        <lane id=":a_8_2" index="2" speed="13.90" length="29.30" shape="264.65,254.95 235.35,254.95"/>
        <lane id=":a_8_3" index="3" speed="13.90" length="29.30" shape="264.65,251.65 235.35,251.65"/>
    </edge>
    <edge id=":a_12" function="internal">
        <lane id=":a_12_0" index="0" speed="13.90" length="8.53" shape="264.65,251.65 257.52,250.63 256.38,249.95"/>
    </edge>
    <edge id=":a_13" function="internal">
        <lane id=":a_13_0" index="0" speed="13.90" length="2.41" shape="264.65,251.65 263.41,250.82 263.00,250.00"/>
    </edge>
    <edge id=":a_30" function="internal">
        <lane id=":a_30_0" index="0" speed="13.90" length="17.76" shape="256.38,249.95 252.43,247.58 249.37,242.48 248.35,235.35"/>
    </edge>
    <edge id=":a_31" function="internal">
        <lane id=":a_31_0" index="0" speed="13.90" length="2.41" shape="263.00,250.00 263.41,249.18 264.65,248.35"/>
    </edge>
    <edge id=":a_14" function="internal">
        <lane id=":a_14_0" index="0" speed="13.90" length="5.00" shape="261.55,235.35 261.74,236.71 262.33,237.68 263.29,238.26 264.65,238.45"/>
    </edge>
    <edge id=":a_15" function="internal">
        <lane id=":a_15_0" index="0" speed="13.90" length="29.30" shape="261.55,235.35 261.55,264.65"/>
        <lane id=":a_15_1" index="1" speed="13.90" length="29.30" shape="258.25,235.35 258.25,264.65"/>
        <lane id=":a_15_2" index="2" speed="13.90" length="29.30" shape="254.95,235.35 254.95,264.65"/>
        <lane id=":a_15_3" index="3" speed="13.90" length="29.30" shape="251.65,235.35 251.65,264.65"/>
    </edge>
    <edge id=":a_19" function="internal">
        <lane id=":a_19_0" index="0" speed="13.90" length="8.53" shape="251.65,235.35 250.63,242.48 249.95,243.62"/>
    </edge>
    <edge id=":a_20" function="internal">
        <lane id=":a_20_0" index="0" speed="13.90" length="2.41" shape="251.65,235.35 250.82,236.59 250.00,237.00"/>
    </edge>
    <edge id=":a_32" function="internal">
        <lane id=":a_32_0" index="0" speed="13.90" length="17.76" shape="249.95,243.62 247.58,247.57 242.48,250.63 235.35,251.65"/>
    </edge>
    <edge id=":a_33" function="internal">
        <lane id=":a_33_0" index="0" speed="13.90" length="2.41" shape="250.00,237.00 249.18,236.59 248.35,235.35"/>
    </edge>
    <edge id=":a_21" function="internal">
        <lane id=":a_21_0" index="0" speed="13.90" length="5.00" shape="235.35,238.45 236.71,238.26 237.68,237.67 238.26,236.71 238.45,235.35"/>
    </edge>
    <edge id=":a_22" function="internal">
        <lane id=":a_22_0" index="0" speed="13.90" length="29.30" shape="235.35,238.45 264.65,238.45"/>
        <lane id=":a_22_1" index="1" speed="13.90" length="29.30" shape="235.35,241.75 264.65,241.75"/>
        <lane id=":a_22_2" index="2" speed="13.90" length="29.30" shape="235.35,245.05 264.65,245.05"/>
        <lane id=":a_22_3" index="3" speed="13.90" length="29.30" shape="235.35,248.35 264.65,248.35"/>
    </edge>
    <edge id=":a_26" function="internal">
        <lane id=":a_26_0" index="0" speed="13.90" length="8.53" shape="235.35,248.35 242.48,249.37 243.62,250.05"/>
    </edge>
    <edge id=":a_27" function="internal">
        <lane id=":a_27_0" index="0" speed="13.90" length="2.41" shape="235.35,248.35 236.59,249.18 237.00,250.00"/>
    </edge>
    <edge id=":a_34" function="internal">
        <lane id=":a_34_0" index="0" speed="13.90" length="17.76" shape="243.62,250.05 247.57,252.43 250.63,257.52 251.65,264.65"/>
    </edge>
    <edge id=":a_35" function="internal">
        <lane id=":a_35_0" index="0" speed="13.90" length="2.41" shape="237.00,250.00 236.59,250.82 235.35,251.65"/>
    </edge>
    <edge id=":b_0" function="internal">
        <lane id=":b_0_0" index="0" speed="13.90" length="5.00" shape="488.45,264.65 488.26,263.29 487.67,262.32 486.71,261.74 485.35,261.55"/>
    </edge>
    <edge id=":b_1" function="internal">
        <lane id=":b_1_0" index="0" speed="13.90" length="29.30" shape="488.45,264.65 488.45,235.35"/>
        <lane id=":b_1_1" index="1" speed="13.90" length="29.30" shape="491.75,264.65 491.75,235.35"/>
        <lane id=":b_1_2" index="2" speed="13.90" length="29.30" shape="495.05,264.65 495.05,235.35"/>
        <lane id=":b_1_3" index="3" speed="13.90" length="29.30" shape="498.35,264.65 498.35,235.35"/>
    </edge>
    <edge id=":b_5" function="internal">
        <lane id=":b_5_0" index="0" speed="13.90" length="8.53" shape="498.35,264.65 499.37,257.52 500.05,256.38"/>
    </edge>
    <edge id=":b_6" function="internal">
        <lane id=":b_6_0" index="0" speed="13.90" length="2.41" shape="498.35,264.65 499.18,263.41 500.00,263.00"/>
    </edge>
    <edge id=":b_28" function="internal">
        <lane id=":b_28_0" index="0" speed="13.90" length="17.76" shape="500.05,256.38 502.43,252.43 507.52,249.37 514.65,248.35"/>
    </edge>
    <edge id=":b_29" function="internal">
        <lane id=":b_29_0" index="0" speed="13.90" length="2.41" shape="500.00,263.00 500.82,263.41 501.65,264.65"/>
    </edge>
    <edge id=":b_7" function="internal">
        <lane id=":b_7_0" index="0" speed="13.90" length="5.00" shape="514.65,261.55 513.29,261.74 512.33,262.33 511.74,263.29 511.55,264.65"/>
    </edge>
    <edge id=":b_8" function="internal">
        <lane id=":b_8_0" index="0" speed="13.90" length="29.30" shape="514.65,261.55 485.35,261.55"/>
        <lane id=":b_8_1" index="1" speed="13.90" length="29.30" shape="514.65,258.25 485.35,258.25"/>
        <lane id=":b_8_2" index="2" speed="13.90" length="29.30" shape="514.65,254.95 485.35,254.95"/>
        <lane id=":b_8_3" index="3" speed="13.90" length="29.30" shape="514.65,251.65 485.35,251.65"/>
    </edge>
    <edge id=":b_12" function="internal">
        <lane id=":b_12_0" index="0" speed="13.90" length="8.53" shape="514.65,251.65 507.52,250.63 506.38,249.95"/>
    </edge>
    <edge id=":b_13" function="internal">
        <lane id=":b_13_0" index="0" speed="13.90" length="2.41" shape="514.65,251.65 513.41,250.82 513.00,250.00"/>
    </edge>
    <edge id=":b_30" function="internal">
        <lane id=":b_30_0" index="0" speed="13.90" length="17.76" shape="506.38,249.95 502.42,247.58 499.37,242.48 498.35,235.35"/>
    </edge>
    <edge id=":b_31" function="internal">
        <lane id=":b_31_0" index="0" speed="13.90" length="2.41" shape="513.00,250.00 513.41,249.18 514.65,248.35"/>
    </edge>
    <edge id=":b_14" function="internal">
        <lane id=":b_14_0" index="0" speed="13.90" length="5.00" shape="511.55,235.35 511.74,236.71 512.33,237.68 513.29,238.26 514.65,238.45"/>
    </edge>
    <edge id=":b_15" function="internal">
        <lane id=":b_15_0" index="0" speed="13.90" length="29.30" shape="511.55,235.35 511.55,264.65"/>
        <lane id=":b_15_1" index="1" speed="13.90" length="29.30" shape="508.25,235.35 508.25,264.65"/>
        <lane id=":b_15_2" index="2" speed="13.90" length="29.30" shape="504.95,235.35 504.95,264.65"/>
        <lane id=":b_15_3" index="3" speed="13.90" length="29.30" shape="501.65,235.35 501.65,264.65"/>
    </edge>
    <edge id=":b_19" function="internal">
        <lane id=":b_19_0" index="0" speed="13.90" length="8.53" shape="501.65,235.35 500.63,242.48 499.95,243.62"/>
    </edge>
    <edge id=":b_20" function="internal">
        <lane id=":b_20_0" index="0" speed="13.90" length="2.41" shape="501.65,235.35 500.82,236.59 500.00,237.00"/>
    </edge>
    <edge id=":b_32" function="internal">
        <lane id=":b_32_0" index="0" speed="13.90" length="17.76" shape="499.95,243.62 497.57,247.57 492.48,250.63 485.35,251.65"/>
    </edge>
    <edge id=":b_33" function="internal">
        <lane id=":b_33_0" index="0" speed="13.90" length="2.41" shape="500.00,237.00 499.18,236.59 498.35,235.35"/>
    </edge>
    <edge id=":b_21" function="internal">
        <lane id=":b_21_0" index="0" speed="13.90" length="5.00" shape="485.35,238.45 486.71,238.26 487.68,237.67 488.26,236.71 488.45,235.35"/>
    </edge>
    <edge id=":b_22" function="internal">
        <lane id=":b_22_0" index="0" speed="13.90" length="29.30" shape="485.35,238.45 514.65,238.45"/>
        <lane id=":b_22_1" index="1" speed="13.90" length="29.30" shape="485.35,241.75 514.65,241.75"/>
        <lane id=":b_22_2" index="2" speed="13.90" length="29.30" shape="485.35,245.05 514.65,245.05"/>
        <lane id=":b_22_3" index="3" speed="13.90" length="29.30" shape="485.35,248.35 514.65,248.35"/>
    </edge>
    <edge id=":b_26" function="internal">
        <lane id=":b_26_0" index="0" speed="13.90" length="8.53" shape="485.35,248.35 492.48,249.37 493.62,250.05"/>
    </edge>
    <edge id=":b_27" function="internal">
        <lane id=":b_27_0" index="0" speed="13.90" length="2.41" shape="485.35,248.35 486.59,249.18 487.00,250.00"/>
    </edge>
    <edge id=":b_34" function="internal">
        <lane id=":b_34_0" index="0" speed="13.90" length="17.76" shape="493.62,250.05 497.57,252.43 500.63,257.52 501.65,264.65"/>
    </edge>
    <edge id=":b_35" function="internal">
        <lane id=":b_35_0" index="0" speed="13.90" length="2.41" shape="487.00,250.00 486.59,250.82 485.35,251.65"/>
    </edge>
    <edge id=":c_0" function="internal">
        <lane id=":c_0_0" index="0" speed="13.90" length="5.00" shape="488.45,514.65 488.26,513.29 487.67,512.33 486.71,511.74 485.35,511.55"/>
    </edge>
    <edge id=":c_1" function="internal">
        <lane id=":c_1_0" index="0" speed="13.90" length="29.30" shape="488.45,514.65 488.45,485.35"/>
        <lane id=":c_1_1" index="1" speed="13.90" length="29.30" shape="491.75,514.65 491.75,485.35"/>
        <lane id=":c_1_2" index="2" speed="13.90" length="29.30" shape="495.05,514.65 495.05,485.35"/>
        <lane id=":c_1_3" index="3" speed="13.90" length="29.30" shape="498.35,514.65 498.35,485.35"/>
    </edge>
    <edge id=":c_5" function="internal">
        <lane id=":c_5_0" index="0" speed="13.90" length="8.53" shape="498.35,514.65 499.37,507.52 500.05,506.38"/>
    </edge>
    <edge id=":c_6" function="internal">
        <lane id=":c_6_0" index="0" speed="13.90" length="2.41" shape="498.35,514.65 499.18,513.41 500.00,513.00"/>
    </edge>
    <edge id=":c_28" function="internal">
        <lane id=":c_28_0" index="0" speed="13.90" length="17.76" shape="500.05,506.38 502.43,502.42 507.52,499.37 514.65,498.35"/>
    </edge>
    <edge id=":c_29" function="internal">
        <lane id=":c_29_0" index="0" speed="13.90" length="2.41" shape="500.00,513.00 500.82,513.41 501.65,514.65"/>
    </edge>
    <edge id=":c_7" function="internal">
        <lane id=":c_7_0" index="0" speed="13.90" length="5.00" shape="514.65,511.55 513.29,511.74 512.33,512.33 511.74,513.29 511.55,514.65"/>
    </edge>
    <edge id=":c_8" function="internal">
        <lane id=":c_8_0" index="0" speed="13.90" length="29.30" shape="514.65,511.55 485.35,511.55"/>
        <lane id=":c_8_1" index="1" speed="13.90" length="29.30" shape="514.65,508.25 485.35,508.25"/>
        <lane id=":c_8_2" index="2" speed="13.90" length="29.30" shape="514.65,504.95 485.35,504.95"/>
        <lane id=":c_8_3" index="3" speed="13.90" length="29.30" shape="514.65,501.65 485.35,501.65"/>
    </edge>
    <edge id=":c_12" function="internal">
        <lane id=":c_12_0" index="0" speed="13.90" length="8.53" shape="514.65,501.65 507.52,500.63 506.38,499.95"/>
    </edge>
    <edge id=":c_13" function="internal">
        <lane id=":c_13_0" index="0" speed="13.90" length="2.41" shape="514.65,501.65 513.41,500.82 513.00,500.00"/>
    </edge>
    <edge id=":c_30" function="internal">
        <lane id=":c_30_0" index="0" speed="13.90" length="17.76" shape="506.38,499.95 502.42,497.57 499.37,492.48 498.35,485.35"/>
    </edge>
    <edge id=":c_31" function="internal">
        <lane id=":c_31_0" index="0" speed="13.90" length="2.41" shape="513.00,500.00 513.41,499.18 514.65,498.35"/>
    </edge>
    <edge id=":c_14" function="internal">
        <lane id=":c_14_0" index="0" speed="13.90" length="5.00" shape="511.55,485.35 511.74,486.71 512.33,487.68 513.29,488.26 514.65,488.45"/>
    </edge>
    <edge id=":c_15" function="internal">
        <lane id=":c_15_0" index="0" speed="13.90" length="29.30" shape="511.55,485.35 511.55,514.65"/>
        <lane id=":c_15_1" index="1" speed="13.90" length="29.30" shape="508.25,485.35 508.25,514.65"/>
        <lane id=":c_15_2" index="2" speed="13.90" length="29.30" shape="504.95,485.35 504.95,514.65"/>
        <lane id=":c_15_3" index="3" speed="13.90" length="29.30" shape="501.65,485.35 501.65,514.65"/>
    </edge>
    <edge id=":c_19" function="internal">
        <lane id=":c_19_0" index="0" speed="13.90" length="8.53" shape="501.65,485.35 500.63,492.48 499.95,493.62"/>
    </edge>
    <edge id=":c_20" function="internal">
        <lane id=":c_20_0" index="0" speed="13.90" length="2.41" shape="501.65,485.35 500.82,486.59 500.00,487.00"/>
    </edge>
    <edge id=":c_32" function="internal">
        <lane id=":c_32_0" index="0" speed="13.90" length="17.76" shape="499.95,493.62 497.57,497.57 492.48,500.63 485.35,501.65"/>
    </edge>
    <edge id=":c_33" function="internal">
        <lane id=":c_33_0" index="0" speed="13.90" length="2.41" shape="500.00,487.00 499.18,486.59 498.35,485.35"/>
    </edge>
    <edge id=":c_21" function="internal">
        <lane id=":c_21_0" index="0" speed="13.90" length="5.00" shape="485.35,488.45 486.71,488.26 487.68,487.67 488.26,486.71 488.45,485.35"/>
    </edge>
    <edge id=":c_22" function="internal">
        <lane id=":c_22_0" index="0" speed="13.90" length="29.30" shape="485.35,488.45 514.65,488.45"/>
        <lane id=":c_22_1" index="1" speed="13.90" length="29.30" shape="485.35,491.75 514.65,491.75"/>
        <lane id=":c_22_2" index="2" speed="13.90" length="29.30" shape="485.35,495.05 514.65,495.05"/>
        <lane id=":c_22_3" index="3" speed="13.90" length="29.30" shape="485.35,498.35 514.65,498.35"/>
    </edge>
    <edge id=":c_26" function="internal">
        <lane id=":c_26_0" index="0" speed="13.90" length="8.53" shape="485.35,498.35 492.48,499.37 493.62,500.05"/>
    </edge>
    <edge id=":c_27" function="internal">
        <lane id=":c_27_0" index="0" speed="13.90" length="2.41" shape="485.35,498.35 486.59,499.18 487.00,500.00"/>
    </edge>
    <edge id=":c_34" function="internal">
        <lane id=":c_34_0" index="0" speed="13.90" length="17.76" shape="493.62,500.05 497.57,502.43 500.63,507.52 501.65,514.65"/>
    </edge>
    <edge id=":c_35" function="internal">
        <lane id=":c_35_0" index="0" speed="13.90" length="2.41" shape="487.00,500.00 486.59,500.82 485.35,501.65"/>
    </edge>
    <edge id=":d_0" function="internal">
        <lane id=":d_0_0" index="0" speed="13.90" length="5.00" shape="238.45,514.65 238.26,513.29 237.67,512.33 236.71,511.74 235.35,511.55"/>
    </edge>
    <edge id=":d_1" function="internal">
        <lane id=":d_1_0" index="0" speed="13.90" length="29.30" shape="238.45,514.65 238.45,485.35"/>
        <lane id=":d_1_1" index="1" speed="13.90" length="29.30" shape="241.75,514.65 241.75,485.35"/>
        <lane id=":d_1_2" index="2" speed="13.90" length="29.30" shape="245.05,514.65 245.05,485.35"/>
        <lane id=":d_1_3" index="3" speed="13.90" length="29.30" shape="248.35,514.65 248.35,485.35"/>
    </edge>
    <edge id=":d_5" function="internal">
        <lane id=":d_5_0" index="0" speed="13.90" length="8.53" shape="248.35,514.65 249.37,507.52 250.05,506.38"/>
    </edge>
    <edge id=":d_6" function="internal">
        <lane id=":d_6_0" index="0" speed="13.90" length="2.41" shape="248.35,514.65 249.18,513.41 250.00,513.00"/>
    </edge>
    <edge id=":d_28" function="internal">
        <lane id=":d_28_0" index="0" speed="13.90" length="17.76" shape="250.05,506.38 252.43,502.42 257.52,499.37 264.65,498.35"/>
    </edge>
    <edge id=":d_29" function="internal">
        <lane id=":d_29_0" index="0" speed="13.90" length="2.41" shape="250.00,513.00 250.82,513.41 251.65,514.65"/>
    </edge>
    <edge id=":d_7" function="internal">
        <lane id=":d_7_0" index="0" speed="13.90" length="5.00" shape="264.65,511.55 263.29,511.74 262.32,512.33 261.74,513.29 261.55,514.65"/>
    </edge>
    <edge id=":d_8" function="internal">
        <lane id=":d_8_0" index="0" speed="13.90" length="29.30" shape="264.65,511.55 235.35,511.55"/>
        <lane id=":d_8_1" index="1" speed="13.90" length="29.30" shape="264.65,508.25 235.35,508.25"/>
        <lane id=":d_8_2" index="2" speed="13.90" length="29.30" shape="264.65,504.95 235.35,504.95"/>
        <lane id=":d_8_3" index="3" speed="13.90" length="29.30" shape="264.65,501.65 235.35,501.65"/>
    </edge>
    <edge id=":d_12" function="internal">
        <lane id=":d_12_0" index="0" speed="13.90" length="8.53" shape="264.65,501.65 257.52,500.63 256.38,499.95"/>
    </edge>
    <edge id=":d_13" function="internal">
        <lane id=":d_13_0" index="0" speed="13.90" length="2.41" shape="264.65,501.65 263.41,500.82 263.00,500.00"/>
    </edge>
    <edge id=":d_30" function="internal">
        <lane id=":d_30_0" index="0" speed="13.90" length="17.76" shape="256.38,499.95 252.43,497.57 249.37,492.48 248.35,485.35"/>
    </edge>
    <edge id=":d_31" function="internal">
        <lane id=":d_31_0" index="0" speed="13.90" length="2.41" shape="263.00,500.00 263.41,499.18 264.65,498.35"/>
    </edge>
    <edge id=":d_14" function="internal">
        <lane id=":d_14_0" index="0" speed="13.90" length="5.00" shape="261.55,485.35 261.74,486.71 262.33,487.68 263.29,488.26 264.65,488.45"/>
    </edge>
    <edge id=":d_15" function="internal">
        <lane id=":d_15_0" index="0" speed="13.90" length="29.30" shape="261.55,485.35 261.55,514.65"/>
        <lane id=":d_15_1" index="1" speed="13.90" length="29.30" shape="258.25,485.35 258.25,514.65"/>
        <lane id=":d_15_2" index="2" speed="13.90" length="29.30" shape="254.95,485.35 254.95,514.65"/>
        <lane id=":d_15_3" index="3" speed="13.90" length="29.30" shape="251.65,485.35 251.65,514.65"/>
    </edge>
    <edge id=":d_19" function="internal">
        <lane id=":d_19_0" index="0" speed="13.90" length="8.53" shape="251.65,485.35 250.63,492.48 249.95,493.62"/>
    </edge>
    <edge id=":d_20" function="internal">
        <lane id=":d_20_0" index="0" speed="13.90" length="2.41" shape="251.65,485.35 250.82,486.59 250.00,487.00"/>
    </edge>
    <edge id=":d_32" function="internal">
        <lane id=":d_32_0" index="0" speed="13.90" length="17.76" shape="249.95,493.62 247.58,497.57 242.48,500.63 235.35,501.65"/>
    </edge>
    <edge id=":d_33" function="internal">
        <lane id=":d_33_0" index="0" speed="13.90" length="2.41" shape="250.00,487.00 249.18,486.59 248.35,485.35"/>
    </edge>
    <edge id=":d_21" function="internal">
        <lane id=":d_21_0" index="0" speed="13.90" length="5.00" shape="235.35,488.45 236.71,488.26 237.68,487.67 238.26,486.71 238.45,485.35"/>
    </edge>
    <edge id=":d_22" function="internal">
        <lane id=":d_22_0" index="0" speed="13.90" length="29.30" shape="235.35,488.45 264.65,488.45"/>
        <lane id=":d_22_1" index="1" speed="13.90" length="29.30" shape="235.35,491.75 264.65,491.75"/>
        <lane id=":d_22_2" index="2" speed="13.90" length="29.30" shape="235.35,495.05 264.65,495.05"/>
        <lane id=":d_22_3" index="3" speed="13.90" length="29.30" shape="235.35,498.35 264.65,498.35"/>
    </edge>
    <edge id=":d_26" function="internal">
        <lane id=":d_26_0" index="0" speed="13.90" length="8.53" shape="235.35,498.35 242.48,499.37 243.62,500.05"/>
    </edge>
    <edge id=":d_27" function="internal">
        <lane id=":d_27_0" index="0" speed="13.90" length="2.41" shape="235.35,498.35 236.59,499.18 237.00,500.00"/>
    </edge>
    <edge id=":d_34" function="internal">
        <lane id=":d_34_0" index="0" speed="13.90" length="17.76" shape="243.62,500.05 247.57,502.43 250.63,507.52 251.65,514.65"/>
    </edge>
    <edge id=":d_35" function="internal">
        <lane id=":d_35_0" index="0" speed="13.90" length="2.41" shape="237.00,500.00 236.59,500.82 235.35,501.65"/>
    </edge>
    <edge id=":e_0" function="internal">
        <lane id=":e_0_0" index="0" speed="13.90" length="4.82" shape="251.65,750.00 250.82,751.24 250.00,751.65 249.18,751.24 248.35,750.00"/>
    </edge>
    <edge id=":f_0" function="internal">
        <lane id=":f_0_0" index="0" speed="13.90" length="4.82" shape="501.65,750.00 500.82,751.24 500.00,751.65 499.18,751.24 498.35,750.00"/>
    </edge>
    <edge id=":g_0" function="internal">
        <lane id=":g_0_0" index="0" speed="13.90" length="4.82" shape="750.00,498.35 751.24,499.18 751.65,500.00 751.24,500.82 750.00,501.65"/>
    </edge>
    <edge id=":h_0" function="internal">
        <lane id=":h_0_0" index="0" speed="13.90" length="4.82" shape="750.00,248.35 751.24,249.18 751.65,250.00 751.24,250.82 750.00,251.65"/>
    </edge>
    <edge id=":i_0" function="internal">
        <lane id=":i_0_0" index="0" speed="13.90" length="4.82" shape="498.35,0.00 499.18,-1.24 500.00,-1.65 500.82,-1.24 501.65,0.00"/>
    </edge>
    <edge id=":j_0" function="internal">
        <lane id=":j_0_0" index="0" speed="13.90" length="4.82" shape="248.35,0.00 249.18,-1.24 250.00,-1.65 250.82,-1.24 251.65,0.00"/>
    </edge>
    <edge id=":k_0" function="internal">
        <lane id=":k_0_0" index="0" speed="13.90" length="4.82" shape="0.00,251.65 -1.24,250.82 -1.65,250.00 -1.24,249.18 0.00,248.35"/>
    </edge>
    <edge id=":l_0" function="internal">
        <lane id=":l_0_0" index="0" speed="13.90" length="4.82" shape="0.00,501.65 -1.24,500.82 -1.65,500.00 -1.24,499.18 0.00,498.35"/>
    </edge>

    <edge id="atobc" from="a" to="b" priority="-1">
        <lane id="atobc_0" index="0" speed="13.90" length="220.70" shape="264.65,238.45 485.35,238.45"/>
        <lane id="atobc_1" index="1" speed="13.90" length="220.70" shape="264.65,241.75 485.35,241.75"/>
        <lane id="atobc_2" index="2" speed="13.90" length="220.70" shape="264.65,245.05 485.35,245.05"/>
        <lane id="atobc_3" index="3" speed="13.90" length="220.70" shape="264.65,248.35 485.35,248.35"/>
    </edge>
    <edge id="atodc" from="a" to="d" priority="-1">
        <lane id="atodc_0" index="0" speed="13.90" length="220.70" shape="261.55,264.65 261.55,485.35"/>
        <lane id="atodc_1" index="1" speed="13.90" length="220.70" shape="258.25,264.65 258.25,485.35"/>
        <lane id="atodc_2" index="2" speed="13.90" length="220.70" shape="254.95,264.65 254.95,485.35"/>
        <lane id="atodc_3" index="3" speed="13.90" length="220.70" shape="251.65,264.65 251.65,485.35"/>
    </edge>
    <edge id="atojr" from="a" to="j" priority="-1">
        <lane id="atojr_0" index="0" speed="13.90" length="235.35" shape="238.45,235.35 238.45,0.00"/>
        <lane id="atojr_1" index="1" speed="13.90" length="235.35" shape="241.75,235.35 241.75,0.00"/>
        <lane id="atojr_2" index="2" speed="13.90" length="235.35" shape="245.05,235.35 245.05,0.00"/>
        <lane id="atojr_3" index="3" speed="13.90" length="235.35" shape="248.35,235.35 248.35,0.00"/>
    </edge>
    <edge id="atokr" from="a" to="k" priority="-1">
        <lane id="atokr_0" index="0" speed="13.90" length="235.35" shape="235.35,261.55 0.00,261.55"/>
        <lane id="atokr_1" index="1" speed="13.90" length="235.35" shape="235.35,258.25 0.00,258.25"/>
        <lane id="atokr_2" index="2" speed="13.90" length="235.35" shape="235.35,254.95 0.00,254.95"/>
        <lane id="atokr_3" index="3" speed="13.90" length="235.35" shape="235.35,251.65 0.00,251.65"/>
    </edge>
    <edge id="btoac" from="b" to="a" priority="-1">
        <lane id="btoac_0" index="0" speed="13.90" length="220.70" shape="485.35,261.55 264.65,261.55"/>
        <lane id="btoac_1" index="1" speed="13.90" length="220.70" shape="485.35,258.25 264.65,258.25"/>
        <lane id="btoac_2" index="2" speed="13.90" length="220.70" shape="485.35,254.95 264.65,254.95"/>
        <lane id="btoac_3" index="3" speed="13.90" length="220.70" shape="485.35,251.65 264.65,251.65"/>
    </edge>
    <edge id="btocc" from="b" to="c" priority="-1">
        <lane id="btocc_0" index="0" speed="13.90" length="220.70" shape="511.55,264.65 511.55,485.35"/>
        <lane id="btocc_1" index="1" speed="13.90" length="220.70" shape="508.25,264.65 508.25,485.35"/>
        <lane id="btocc_2" index="2" speed="13.90" length="220.70" shape="504.95,264.65 504.95,485.35"/>
        <lane id="btocc_3" index="3" speed="13.90" length="220.70" shape="501.65,264.65 501.65,485.35"/>
    </edge>
    <edge id="btohr" from="b" to="h" priority="-1">
        <lane id="btohr_0" index="0" speed="13.90" length="235.35" shape="514.65,238.45 750.00,238.45"/>
        <lane id="btohr_1" index="1" speed="13.90" length="235.35" shape="514.65,241.75 750.00,241.75"/>
        <lane id="btohr_2" index="2" speed="13.90" length="235.35" shape="514.65,245.05 750.00,245.05"/>
        <lane id="btohr_3" index="3" speed="13.90" length="235.35" shape="514.65,248.35 750.00,248.35"/>
    </edge>
    <edge id="btoi" from="b" to="i" priority="-1">
        <lane id="btoi_0" index="0" speed="13.90" length="235.35" shape="488.45,235.35 488.45,0.00"/>
        <lane id="btoi_1" index="1" speed="13.90" length="235.35" shape="491.75,235.35 491.75,0.00"/>
        <lane id="btoi_2" index="2" speed="13.90" length="235.35" shape="495.05,235.35 495.05,0.00"/>
        <lane id="btoi_3" index="3" speed="13.90" length="235.35" shape="498.35,235.35 498.35,0.00"/>
    </edge>
    <edge id="ctobc" from="c" to="b" priority="-1">
        <lane id="ctobc_0" index="0" speed="13.90" length="220.70" shape="488.45,485.35 488.45,264.65"/>
        <lane id="ctobc_1" index="1" speed="13.90" length="220.70" shape="491.75,485.35 491.75,264.65"/>
        <lane id="ctobc_2" index="2" speed="13.90" length="220.70" shape="495.05,485.35 495.05,264.65"/>
        <lane id="ctobc_3" index="3" speed="13.90" length="220.70" shape="498.35,485.35 498.35,264.65"/>
    </edge>
    <edge id="ctodc" from="c" to="d" priority="-1">
        <lane id="ctodc_0" index="0" speed="13.90" length="220.70" shape="485.35,511.55 264.65,511.55"/>
        <lane id="ctodc_1" index="1" speed="13.90" length="220.70" shape="485.35,508.25 264.65,508.25"/>
        <lane id="ctodc_2" index="2" speed="13.90" length="220.70" shape="485.35,504.95 264.65,504.95"/>
        <lane id="ctodc_3" index="3" speed="13.90" length="220.70" shape="485.35,501.65 264.65,501.65"/>
    </edge>
    <edge id="ctofr" from="c" to="f" priority="-1">
        <lane id="ctofr_0" index="0" speed="13.90" length="235.35" shape="511.55,514.65 511.55,750.00"/>
        <lane id="ctofr_1" index="1" speed="13.90" length="235.35" shape="508.25,514.65 508.25,750.00"/>
        <lane id="ctofr_2" index="2" speed="13.90" length="235.35" shape="504.95,514.65 504.95,750.00"/>
        <lane id="ctofr_3" index="3" speed="13.90" length="235.35" shape="501.65,514.65 501.65,750.00"/>
    </edge>
    <edge id="ctogr" from="c" to="g" priority="-1">
        <lane id="ctogr_0" index="0" speed="13.90" length="235.35" shape="514.65,488.45 750.00,488.45"/>
        <lane id="ctogr_1" index="1" speed="13.90" length="235.35" shape="514.65,491.75 750.00,491.75"/>
        <lane id="ctogr_2" index="2" speed="13.90" length="235.35" shape="514.65,495.05 750.00,495.05"/>
        <lane id="ctogr_3" index="3" speed="13.90" length="235.35" shape="514.65,498.35 750.00,498.35"/>
    </edge>