<additional>
   <tlLogic id="5" programID="my_program" offset="0" type="static">
      <phase duration="31" state="rrrrrrrrrrrrrrrrrrrrrrrr"/>
      
   </tlLogic>
</additional>
