<?xml version="1.0" encoding="UTF-8"?>

<!-- generated on Fri Jan 12 00:10:33 2018 by SUMO netconvert Version 0.32.0
<?xml version="1.0" encoding="UTF-8"?>

<configuration xmlns:xsi="http://www.w3.org/2001/XMLSchema-instance" xsi:noNamespaceSchemaLocation="http://sumo.dlr.de/xsd/netconvertConfiguration.xsd">

    <input>
        <node-files value="./sumo-map.nod.xml"/>
        <edge-files value="./sumo-map.edg.xml"/>
        <tllogic-files value="./sumo-map.add.xml"/>
    </input>

    <output>
        <output-file value="./sumo-map.net.xml"/>
    </output>

</configuration>
-->

<net version="0.27" xmlns:xsi="http://www.w3.org/2001/XMLSchema-instance" xsi:noNamespaceSchemaLocation="http://sumo.dlr.de/xsd/net_file.xsd">

    <location netOffset="250.00,251.00" convBoundary="0.00,0.00,500.00,502.00" origBoundary="-250.00,-251.00,250.00,251.00" projParameter="!"/>

    <edge id=":5_0" function="internal">
        <lane id=":5_0_0" index="0" speed="13.90" length="12.80" shape="241.75,252.45 241.75,239.65"/>
        <lane id=":5_0_1" index="1" speed="13.90" length="12.80" shape="245.05,252.45 245.05,239.65"/>
        <lane id=":5_0_2" index="2" speed="13.90" length="12.80" shape="248.35,252.45 248.35,239.65"/>
    </edge>
    <edge id=":5_3" function="internal">
        <lane id=":5_3_0" index="0" speed="13.90" length="7.85" shape="248.35,252.45 248.54,249.65 249.12,247.65 250.09,246.45 251.45,246.05"/>
    </edge>
    <edge id=":5_4" function="internal">
        <lane id=":5_4_0" index="0" speed="13.90" length="5.00" shape="248.35,252.45 248.54,251.09 249.12,250.12 250.09,249.54 251.45,249.35"/>
    </edge>
    <edge id=":5_5" function="internal">
        <lane id=":5_5_0" index="0" speed="13.90" length="5.00" shape="238.65,242.75 240.01,242.56 240.97,241.97 241.56,241.01 241.75,239.65"/>
    </edge>
    <edge id=":5_6" function="internal">
        <lane id=":5_6_0" index="0" speed="13.90" length="12.80" shape="238.65,242.75 251.45,242.75"/>
        <lane id=":5_6_1" index="1" speed="13.90" length="12.80" shape="238.65,246.05 251.45,246.05"/>
        <lane id=":5_6_2" index="2" speed="13.90" length="12.80" shape="238.65,249.35 251.45,249.35"/>
    </edge>

    <edge id="1to5" from="1" to="5" priority="-1">
        <lane id="1to5_0" index="0" speed="13.90" length="238.65" shape="0.00,242.75 238.65,242.75"/>
        <lane id="1to5_1" index="1" speed="13.90" length="238.65" shape="0.00,246.05 238.65,246.05"/>
        <lane id="1to5_2" index="2" speed="13.90" length="238.65" shape="0.00,249.35 238.65,249.35"/>
    </edge>
    <edge id="3to5" from="3" to="5" priority="-1">
        <lane id="3to5_0" index="0" speed="13.90" length="249.55" shape="241.75,502.00 241.75,252.45"/>
        <lane id="3to5_1" index="1" speed="13.90" length="249.55" shape="245.05,502.00 245.05,252.45"/>
        <lane id="3to5_2" index="2" speed="13.90" length="249.55" shape="248.35,502.00 248.35,252.45"/>
    </edge>
    <edge id="5to2" from="5" to="2" priority="-1">
        <lane id="5to2_0" index="0" speed="13.90" length="248.55" shape="251.45,242.75 500.00,242.75"/>
        <lane id="5to2_1" index="1" speed="13.90" length="248.55" shape="251.45,246.05 500.00,246.05"/>
        <lane id="5to2_2" index="2" speed="13.90" length="248.55" shape="251.45,249.35 500.00,249.35"/>
    </edge>
    <edge id="5to4" from="5" to="4" priority="-1">
        <lane id="5to4_0" index="0" speed="13.90" length="239.65" shape="241.75,239.65 241.75,0.00"/>
        <lane id="5to4_1" index="1" speed="13.90" length="239.65" shape="245.05,239.65 245.05,0.00"/>
        <lane id="5to4_2" index="2" speed="13.90" length="239.65" shape="248.35,239.65 248.35,0.00"/>
    </edge>

    <tlLogic id="5" type="static" programID="0" offset="0">
        <phase duration="42" state="GGGGGrrrr"/>
        <phase duration="3" state="yyyyyrrrr"/>
        <phase duration="42" state="rrrrrGGGG"/>
        <phase duration="3" state="rrrrryyyy"/>
    </tlLogic>
    <tlLogic id="5" type="static" programID="my_program" offset="0">
        <phase duration="31" state="rrrrrrrrr"/>
        <phase duration="31" state="Grrrrrrrr"/>
        <phase duration="31" state="rGrrrrrrr"/>
        <phase duration="31" state="rrGrrrrrr"/>
        <phase duration="31" state="rrrGrrrrr"/>
        <phase duration="31" state="rrrrGrrrr"/>
        <phase duration="31" state="rrrrrGrrr"/>
        <phase duration="31" state="rrrrrrGrr"/>
        <phase duration="31" state="rrrrrrrGr"/>
        <phase duration="31" state="rrrrrrrrG"/>
    </tlLogic>

    <junction id="1" type="dead_end" x="0.00" y="251.00" incLanes="" intLanes="" shape="0.00,250.95 0.00,241.15"/>
    <junction id="2" type="dead_end" x="500.00" y="251.00" incLanes="5to2_0 5to2_1 5to2_2" intLanes="" shape="500.00,241.15 500.00,250.95"/>
    <junction id="3" type="dead_end" x="250.00" y="502.00" incLanes="" intLanes="" shape="249.95,502.00 240.15,502.00"/>
    <junction id="4" type="dead_end" x="250.00" y="0.00" incLanes="5to4_0 5to4_1 5to4_2" intLanes="" shape="240.15,0.00 249.95,0.00"/>
    <junction id="5" type="traffic_light" x="250.00" y="251.00" incLanes="3to5_0 3to5_1 3to5_2 1to5_0 1to5_1 1to5_2" intLanes=":5_0_0 :5_0_1 :5_0_2 :5_3_0 :5_4_0 :5_5_0 :5_6_0 :5_6_1 :5_6_2" shape="240.15,252.45 249.95,252.45 251.45,250.95 251.45,241.15 249.95,239.65 240.15,239.65 238.65,241.15 238.65,250.95">
        <request index="0" response="111100000" foes="111100000" cont="0"/>
        <request index="1" response="111100000" foes="111100000" cont="0"/>
        <request index="2" response="111100000" foes="111100000" cont="0"/>
        <request index="3" response="111000000" foes="111000000" cont="0"/>
        <request index="4" response="111000000" foes="111000000" cont="0"/>
        <request index="5" response="000000000" foes="000000111" cont="0"/>
        <request index="6" response="000000000" foes="000011111" cont="0"/>
        <request index="7" response="000000000" foes="000011111" cont="0"/>
        <request index="8" response="000000000" foes="000011111" cont="0"/>
    </junction>

    <connection from="1to5" to="5to4" fromLane="0" toLane="0" via=":5_5_0" tl="5" linkIndex="5" dir="r" state="o"/>
    <connection from="1to5" to="5to2" fromLane="0" toLane="0" via=":5_6_0" tl="5" linkIndex="6" dir="s" state="o"/>
    <connection from="1to5" to="5to2" fromLane="1" toLane="1" via=":5_6_1" tl="5" linkIndex="7" dir="s" state="o"/>
    <connection from="1to5" to="5to2" fromLane="2" toLane="2" via=":5_6_2" tl="5" linkIndex="8" dir="s" state="o"/>
    <connection from="3to5" to="5to4" fromLane="0" toLane="0" via=":5_0_0" tl="5" linkIndex="0" dir="s" state="o"/>
    <connection from="3to5" to="5to4" fromLane="1" toLane="1" via=":5_0_1" tl="5" linkIndex="1" dir="s" state="o"/>
    <connection from="3to5" to="5to4" fromLane="2" toLane="2" via=":5_0_2" tl="5" linkIndex="2" dir="s" state="o"/>
    <connection from="3to5" to="5to2" fromLane="2" toLane="1" via=":5_3_0" tl="5" linkIndex="3" dir="l" state="o"/>
    <connection from="3to5" to="5to2" fromLane="2" toLane="2" via=":5_4_0" tl="5" linkIndex="4" dir="l" state="o"/>

    <connection from=":5_0" to="5to4" fromLane="0" toLane="0" dir="s" state="M"/>
    <connection from=":5_0" to="5to4" fromLane="1" toLane="1" dir="s" state="M"/>
    <connection from=":5_0" to="5to4" fromLane="2" toLane="2" dir="s" state="M"/>
    <connection from=":5_3" to="5to2" fromLane="0" toLane="1" dir="l" state="M"/>
    <connection from=":5_4" to="5to2" fromLane="0" toLane="2" dir="l" state="M"/>
    <connection from=":5_5" to="5to4" fromLane="0" toLane="0" dir="r" state="M"/>
    <connection from=":5_6" to="5to2" fromLane="0" toLane="0" dir="s" state="M"/>
    <connection from=":5_6" to="5to2" fromLane="1" toLane="1" dir="s" state="M"/>
    <connection from=":5_6" to="5to2" fromLane="2" toLane="2" dir="s" state="M"/>

</net>
